/*---------------------------------------------------------------------------*\
| =========                 |                                                 |
| \      /  F ield         | OpenFOAM: The Open Source CFD Toolbox           |
|  \    /   O peration     | Version:  v1806/v10                             |
|   \  /    A nd           | Web:      https://www.OpenFOAM.com              |
|    \/     M anipulation  |           https://www.OpenFOAM.org              |
\*---------------------------------------------------------------------------*/
FoamFile
{
    version     2.0;
    format      ascii;
    class       dictionary;
    object      blockMeshDict;
}
// * * * * * * * * * * * * * * * * * * * * * * * * * * * * * * * * * * * * * //

scale 1;

vertices
(
	(0.0000000000000000000000000 0.0000000000000000000000000 0.0000000000000000000000000) // 0
	(0.0000000000000000000000000 0.0240000000000000004996004 0.0000000000000000000000000) // 1
	(0.0000000000000000000000000 0.0187773900000000014409718 0.0187773899999999979715248) // 2
	(0.0000000000000000000000000 0.0000000000000000000000000 0.0240000000000000004996004) // 3
	(5.0000000000000000000000000 0.0000000000000000000000000 0.0000000000000000000000000) // 4
	(5.0000000000000000000000000 0.0240000000000000004996004 0.0000000000000000000000000) // 5
	(5.0000000000000000000000000 0.0187773900000000014409718 0.0187773899999999979715248) // 6
	(5.0000000000000000000000000 0.0000000000000000000000000 0.0240000000000000004996004) // 7
	(0.0000000000000000000000000 -0.0239999999999999935607065 0.0000000000000000036646825) // 8
	(0.0000000000000000000000000 -0.0187773899999999979715248 0.0187773900000000049104187) // 9
	(5.0000000000000000000000000 -0.0239999999999999935607065 0.0000000000000000036646825) // 10
	(5.0000000000000000000000000 -0.0187773899999999979715248 0.0187773900000000049104187) // 11
	(0.0000000000000000000000000 -0.0187773899999999979715248 -0.0187773900000000049104187) // 12
	(0.0000000000000000000000000 -0.0000000000000000080733512 -0.0240000000000000074384943) // 13
	(5.0000000000000000000000000 -0.0187773899999999979715248 -0.0187773900000000049104187) // 14
	(5.0000000000000000000000000 -0.0000000000000000080733512 -0.0240000000000000074384943) // 15
	(0.0000000000000000000000000 0.0187773899999999979715248 -0.0187773899999999979715248) // 16
	(5.0000000000000000000000000 0.0187773899999999979715248 -0.0187773899999999979715248) // 17
	(0.0000000000000000000000000 0.0299999999999999988897770 0.0000000000000000000000000) // 18
	(0.0000000000000000000000000 0.0212132034355964269045636 0.0212132034355964234351166) // 19
	(5.0000000000000000000000000 0.0299999999999999988897770 0.0000000000000000000000000) // 20
	(5.0000000000000000000000000 0.0212132034355964269045636 0.0212132034355964234351166) // 21
	(0.0000000000000000000000000 0.0000000000000000000000000 0.0299999999999999988897770) // 22
	(5.0000000000000000000000000 0.0000000000000000000000000 0.0299999999999999988897770) // 23
	(0.0000000000000000000000000 -0.0212132034355964234351166 0.0212132034355964303740105) // 24
	(5.0000000000000000000000000 -0.0212132034355964234351166 0.0212132034355964303740105) // 25
	(0.0000000000000000000000000 -0.0299999999999999919508831 0.0000000000000000045808531) // 26
	(5.0000000000000000000000000 -0.0299999999999999919508831 0.0000000000000000045808531) // 27
	(0.0000000000000000000000000 -0.0212132034355964234351166 -0.0212132034355964303740105) // 28
	(5.0000000000000000000000000 -0.0212132034355964234351166 -0.0212132034355964303740105) // 29
	(0.0000000000000000000000000 -0.0000000000000000100916890 -0.0300000000000000058286709) // 30
	(5.0000000000000000000000000 -0.0000000000000000100916890 -0.0300000000000000058286709) // 31
	(0.0000000000000000000000000 0.0212132034355964234351166 -0.0212132034355964234351166) // 32
	(5.0000000000000000000000000 0.0212132034355964234351166 -0.0212132034355964234351166) // 33
	(0.0000000000000000000000000 0.1170000000000000067723605 0.0000000000000000000000000) // 34
	(0.0000000000000000000000000 0.0827314933988260725605812 0.0827314933988260586827934) // 35
	(5.0000000000000000000000000 0.1170000000000000067723605 0.0000000000000000000000000) // 36
	(5.0000000000000000000000000 0.0827314933988260725605812 0.0827314933988260586827934) // 37
	(0.0000000000000000000000000 0.0000000000000000166935240 0.1170000000000000067723605) // 38
	(5.0000000000000000000000000 0.0000000000000000166935240 0.1170000000000000067723605) // 39
	(0.0000000000000000000000000 -0.0827314933988260586827934 0.0827314933988260725605812) // 40
	(5.0000000000000000000000000 -0.0827314933988260586827934 0.0827314933988260725605812) // 41
	(0.0000000000000000000000000 -0.1170000000000000206501483 0.0000000000000000305713118) // 42
	(5.0000000000000000000000000 -0.1170000000000000206501483 0.0000000000000000305713118) // 43
	(0.0000000000000000000000000 -0.0827314933988260725605812 -0.0827314933988260309272178) // 44
	(5.0000000000000000000000000 -0.0827314933988260725605812 -0.0827314933988260309272178) // 45
	(0.0000000000000000000000000 0.0000000000000000086154517 -0.1170000000000000206501483) // 46
	(5.0000000000000000000000000 0.0000000000000000086154517 -0.1170000000000000206501483) // 47
	(0.0000000000000000000000000 0.0827314933988260448050056 -0.0827314933988261141939446) // 48
	(5.0000000000000000000000000 0.0827314933988260448050056 -0.0827314933988261141939446) // 49
	(-0.2500000000000000000000000 0.0299999999999999988897770 -0.0000000000000000038697678) // 50
	(-0.2500000000000000000000000 0.1170000000000000067723605 0.0000000000000000000000000) // 51
	(-0.2500000000000000000000000 0.0827314933988260725605812 -0.0827314933988260586827934) // 52
	(-0.2500000000000000000000000 0.0212132034355964269045636 -0.0212132034355964269045636) // 53
	(-0.2500000000000000000000000 0.0000000000000000166935240 -0.1170000000000000067723605) // 54
	(-0.2500000000000000000000000 0.0000000000000000065868085 -0.0299999999999999988897770) // 55
	(-0.2500000000000000000000000 -0.0827314933988260586827934 -0.0827314933988260725605812) // 56
	(-0.2500000000000000000000000 -0.0212132034355964199656697 -0.0212132034355964338434575) // 57
	(-0.2500000000000000000000000 -0.1170000000000000206501483 -0.0000000000000000357754822) // 58
	(-0.2500000000000000000000000 -0.0299999999999999988897770 -0.0000000000000000152604259) // 59
	(-0.2500000000000000000000000 -0.0827314933988260725605812 0.0827314933988260309272178) // 60
	(-0.2500000000000000000000000 -0.0212132034355964269045636 0.0212132034355964060878819) // 61
	(-0.2500000000000000000000000 0.0000000000000000086154517 0.1170000000000000206501483) // 62
	(-0.2500000000000000000000000 -0.0000000000000000001418077 0.0299999999999999919508831) // 63
	(-0.2500000000000000000000000 0.0827314933988260448050056 0.0827314933988261141939446) // 64
	(-0.2500000000000000000000000 0.0212132034355964164962227 0.0212132034355964338434575) // 65
	(0.0000000000000000000000000 2.0000000000000000000000000 0.0000000000000000837560078) // 66
	(0.0000000000000000000000000 1.4142135623730951454746219 1.4142135623730949234300169) // 67
	(5.0000000000000000000000000 2.0000000000000000000000000 0.0000000000000000837560078) // 68
	(5.0000000000000000000000000 1.4142135623730951454746219 1.4142135623730949234300169) // 69
	(0.0000000000000000000000000 0.0000000000000003993469235 2.0000000000000000000000000) // 70
	(5.0000000000000000000000000 0.0000000000000003993469235 2.0000000000000000000000000) // 71
	(0.0000000000000000000000000 -1.4142135623730949234300169 1.4142135623730951454746219) // 72
	(5.0000000000000000000000000 -1.4142135623730949234300169 1.4142135623730951454746219) // 73
	(0.0000000000000000000000000 -2.0000000000000000000000000 0.0000000000000003941427531) // 74
	(5.0000000000000000000000000 -2.0000000000000000000000000 0.0000000000000003941427531) // 75
	(0.0000000000000000000000000 -1.4142135623730951454746219 -1.4142135623730944793408071) // 76
	(5.0000000000000000000000000 -1.4142135623730951454746219 -1.4142135623730944793408071) // 77
	(0.0000000000000000000000000 0.0000000000000001367161732 -2.0000000000000000000000000) // 78
	(5.0000000000000000000000000 0.0000000000000001367161732 -2.0000000000000000000000000) // 79
	(0.0000000000000000000000000 1.4142135623730947013854120 -1.4142135623730958116084366) // 80
	(5.0000000000000000000000000 1.4142135623730947013854120 -1.4142135623730958116084366) // 81
	(-0.2500000000000000000000000 2.0000000000000000000000000 0.0000000000000000837560078) // 82
	(-0.2500000000000000000000000 1.4142135623730951454746219 -1.4142135623730949234300169) // 83
	(-0.2500000000000000000000000 0.0000000000000003854691357 -2.0000000000000000000000000) // 84
	(-0.2500000000000000000000000 -1.4142135623730949234300169 -1.4142135623730951454746219) // 85
	(-0.2500000000000000000000000 -2.0000000000000000000000000 -0.0000000000000004062858174) // 86
	(-0.2500000000000000000000000 -1.4142135623730951454746219 1.4142135623730944793408071) // 87
	(-0.2500000000000000000000000 0.0000000000000001228383853 2.0000000000000000000000000) // 88
	(-0.2500000000000000000000000 1.4142135623730947013854120 1.4142135623730958116084366) // 89
	(-1.0000000000000000000000000 0.0299999999999999988897770 -0.0000000000000000019348839) // 90
	(-1.0000000000000000000000000 0.1170000000000000067723605 0.0000000000000000000000000) // 91
	(-1.0000000000000000000000000 0.0827314933988260725605812 -0.0827314933988260586827934) // 92
	(-1.0000000000000000000000000 0.0212132034355964269045636 -0.0212132034355964269045636) // 93
	(-1.0000000000000000000000000 0.0000000000000000166935240 -0.1170000000000000067723605) // 94
	(-1.0000000000000000000000000 0.0000000000000000041335391 -0.0300000000000000023592239) // 95
	(-1.0000000000000000000000000 -0.0827314933988260586827934 -0.0827314933988260725605812) // 96
	(-1.0000000000000000000000000 -0.0212132034355964234351166 -0.0212132034355964303740105) // 97
	(-1.0000000000000000000000000 -0.1170000000000000206501483 -0.0000000000000000331733970) // 98
	(-1.0000000000000000000000000 -0.0300000000000000023592239 -0.0000000000000000102050712) // 99
	(-1.0000000000000000000000000 -0.0827314933988260725605812 0.0827314933988260309272178) // 100
	(-1.0000000000000000000000000 -0.0212132034355964269045636 0.0212132034355964130267758) // 101
	(-1.0000000000000000000000000 0.0000000000000000086154517 0.1170000000000000206501483) // 102
	(-1.0000000000000000000000000 0.0000000000000000023114618 0.0299999999999999988897770) // 103
	(-1.0000000000000000000000000 0.0827314933988260448050056 0.0827314933988261141939446) // 104
	(-1.0000000000000000000000000 0.0212132034355964199656697 0.0212132034355964338434575) // 105
	(-1.0000000000000000000000000 2.0000000000000000000000000 0.0000000000000000837560078) // 106
	(-1.0000000000000000000000000 1.4142135623730951454746219 -1.4142135623730949234300169) // 107
	(-1.0000000000000000000000000 0.0000000000000003715913479 -2.0000000000000000000000000) // 108
	(-1.0000000000000000000000000 -1.4142135623730949234300169 -1.4142135623730951454746219) // 109
	(-1.0000000000000000000000000 -2.0000000000000000000000000 -0.0000000000000003924080296) // 110
	(-1.0000000000000000000000000 -1.4142135623730951454746219 1.4142135623730944793408071) // 111
	(-1.0000000000000000000000000 0.0000000000000001089605975 2.0000000000000000000000000) // 112
	(-1.0000000000000000000000000 1.4142135623730947013854120 1.4142135623730958116084366) // 113
);

blocks
(
	hex ( 0 1 2 3 4 5 6 7 )  ( 15 15 111 ) simpleGrading ( 1 1 2.9877972010972282 ) // 0 
	hex ( 8 0 3 9 10 4 7 11 )  ( 15 15 111 ) simpleGrading ( 1 1.0 2.9877972010972282 ) // 1 
	hex ( 12 13 0 8 14 15 4 10 )  ( 15 15 111 ) simpleGrading ( 1 1 2.9877972010972282 ) // 2 
	hex ( 13 16 1 0 15 17 5 4 )  ( 15 15 111 ) simpleGrading ( 1 1 2.9877972010972282 ) // 3 
	hex ( 1 18 19 2 5 20 21 6 )  ( 4 15 111 ) simpleGrading ( 1 1 2.9877972010972282 ) // 4 
	hex ( 2 19 22 3 6 21 23 7 )  ( 4 15 111 ) simpleGrading ( 1 1.0 2.9877972010972282 ) // 5 
	hex ( 3 22 24 9 7 23 25 11 )  ( 4 15 111 ) simpleGrading ( 1 1.0 2.9877972010972282 ) // 6 
	hex ( 9 24 26 8 11 25 27 10 )  ( 4 15 111 ) simpleGrading ( 1 1 2.9877972010972282 ) // 7 
	hex ( 8 26 28 12 10 27 29 14 )  ( 4 15 111 ) simpleGrading ( 1 1.0 2.9877972010972282 ) // 8 
	hex ( 12 28 30 13 14 29 31 15 )  ( 4 15 111 ) simpleGrading ( 1 1 2.9877972010972282 ) // 9 
	hex ( 13 30 32 16 15 31 33 17 )  ( 4 15 111 ) simpleGrading ( 1 1 2.9877972010972282 ) // 10 
	hex ( 16 32 18 1 17 33 20 5 )  ( 4 15 111 ) simpleGrading ( 1 1 2.9877972010972282 ) // 11 
	hex ( 18 34 35 19 20 36 37 21 )  ( 59 15 111 ) simpleGrading ( 1 1.0 2.9877972010972282 ) // 12 
	hex ( 19 35 38 22 21 37 39 23 )  ( 59 15 111 ) simpleGrading ( 1 1.0 2.9877972010972282 ) // 13 
	hex ( 22 38 40 24 23 39 41 25 )  ( 59 15 111 ) simpleGrading ( 1 1.0 2.9877972010972282 ) // 14 
	hex ( 24 40 42 26 25 41 43 27 )  ( 59 15 111 ) simpleGrading ( 1 1.0 2.9877972010972282 ) // 15 
	hex ( 26 42 44 28 27 43 45 29 )  ( 59 15 111 ) simpleGrading ( 1 1.0 2.9877972010972282 ) // 16 
	hex ( 28 44 46 30 29 45 47 31 )  ( 59 15 111 ) simpleGrading ( 1 1.0 2.9877972010972282 ) // 17 
	hex ( 30 46 48 32 31 47 49 33 )  ( 59 15 111 ) simpleGrading ( 1 1.0 2.9877972010972282 ) // 18 
	hex ( 32 48 34 18 33 49 36 20 )  ( 59 15 111 ) simpleGrading ( 1 1.0 2.9877972010972282 ) // 19 
	hex ( 18 34 48 32 50 51 52 53 )  ( 59 15 11 ) simpleGrading ( 1 1 1 ) // 20 
	hex ( 32 48 46 30 53 52 54 55 )  ( 59 15 11 ) simpleGrading ( 1 1 1 ) // 21 
	hex ( 30 46 44 28 55 54 56 57 )  ( 59 15 11 ) simpleGrading ( 1 1 1 ) // 22 
	hex ( 28 44 42 26 57 56 58 59 )  ( 59 15 11 ) simpleGrading ( 1 1 1 ) // 23 
	hex ( 26 42 40 24 59 58 60 61 )  ( 59 15 11 ) simpleGrading ( 1 1 1 ) // 24 
	hex ( 24 40 38 22 61 60 62 63 )  ( 59 15 11 ) simpleGrading ( 1 1 1 ) // 25 
	hex ( 22 38 35 19 63 62 64 65 )  ( 59 15 11 ) simpleGrading ( 1 1 1 ) // 26 
	hex ( 19 35 34 18 65 64 51 50 )  ( 59 15 11 ) simpleGrading ( 1 1 1 ) // 27 
	hex ( 34 66 67 35 36 68 69 37 )  ( 86 15 111 ) simpleGrading ( 63.25435344454156 1.0 2.9877972010972282 ) // 28 
	hex ( 35 67 70 38 37 69 71 39 )  ( 86 15 111 ) simpleGrading ( 63.25435344454156 1.0 2.9877972010972282 ) // 29 
	hex ( 38 70 72 40 39 71 73 41 )  ( 86 15 111 ) simpleGrading ( 63.25435344454156 1.0 2.9877972010972282 ) // 30 
	hex ( 40 72 74 42 41 73 75 43 )  ( 86 15 111 ) simpleGrading ( 63.25435344454156 1.0 2.9877972010972282 ) // 31 
	hex ( 42 74 76 44 43 75 77 45 )  ( 86 15 111 ) simpleGrading ( 63.25435344454156 1.0 2.9877972010972282 ) // 32 
	hex ( 44 76 78 46 45 77 79 47 )  ( 86 15 111 ) simpleGrading ( 63.25435344454156 1.0 2.9877972010972282 ) // 33 
	hex ( 46 78 80 48 47 79 81 49 )  ( 86 15 111 ) simpleGrading ( 63.25435344454156 1.0 2.9877972010972282 ) // 34 
	hex ( 48 80 66 34 49 81 68 36 )  ( 86 15 111 ) simpleGrading ( 63.25435344454156 1.0 2.9877972010972282 ) // 35 
	hex ( 34 66 80 48 51 82 83 52 )  ( 86 15 11 ) simpleGrading ( 63.25435344454156 1 1 ) // 36 
	hex ( 48 80 78 46 52 83 84 54 )  ( 86 15 11 ) simpleGrading ( 63.25435344454156 1 1 ) // 37 
	hex ( 46 78 76 44 54 84 85 56 )  ( 86 15 11 ) simpleGrading ( 63.25435344454156 1 1 ) // 38 
	hex ( 44 76 74 42 56 85 86 58 )  ( 86 15 11 ) simpleGrading ( 63.25435344454156 1 1 ) // 39 
	hex ( 42 74 72 40 58 86 87 60 )  ( 86 15 11 ) simpleGrading ( 63.25435344454156 1 1 ) // 40 
	hex ( 40 72 70 38 60 87 88 62 )  ( 86 15 11 ) simpleGrading ( 63.25435344454156 1 1 ) // 41 
	hex ( 38 70 67 35 62 88 89 64 )  ( 86 15 11 ) simpleGrading ( 63.25435344454156 1 1 ) // 42 
	hex ( 35 67 66 34 64 89 82 51 )  ( 86 15 11 ) simpleGrading ( 63.25435344454156 1 1 ) // 43 
	hex ( 50 51 52 53 90 91 92 93 )  ( 59 15 19 ) simpleGrading ( 1 1 2.4066192336910857 ) // 44 
	hex ( 53 52 54 55 93 92 94 95 )  ( 59 15 19 ) simpleGrading ( 1 1 2.4066192336910857 ) // 45 
	hex ( 55 54 56 57 95 94 96 97 )  ( 59 15 19 ) simpleGrading ( 1 1 2.4066192336910857 ) // 46 
	hex ( 57 56 58 59 97 96 98 99 )  ( 59 15 19 ) simpleGrading ( 1 1 2.4066192336910857 ) // 47 
	hex ( 59 58 60 61 99 98 100 101 )  ( 59 15 19 ) simpleGrading ( 1 1 2.4066192336910857 ) // 48 
	hex ( 61 60 62 63 101 100 102 103 )  ( 59 15 19 ) simpleGrading ( 1 1 2.4066192336910857 ) // 49 
	hex ( 63 62 64 65 103 102 104 105 )  ( 59 15 19 ) simpleGrading ( 1 1 2.4066192336910857 ) // 50 
	hex ( 65 64 51 50 105 104 91 90 )  ( 59 15 19 ) simpleGrading ( 1 1 2.4066192336910857 ) // 51 
	hex ( 51 82 83 52 91 106 107 92 )  ( 86 15 19 ) simpleGrading ( 63.25435344454156 1 2.4066192336910857 ) // 52 
	hex ( 52 83 84 54 92 107 108 94 )  ( 86 15 19 ) simpleGrading ( 63.25435344454156 1 2.4066192336910857 ) // 53 
	hex ( 54 84 85 56 94 108 109 96 )  ( 86 15 19 ) simpleGrading ( 63.25435344454156 1 2.4066192336910857 ) // 54 
	hex ( 56 85 86 58 96 109 110 98 )  ( 86 15 19 ) simpleGrading ( 63.25435344454156 1 2.4066192336910857 ) // 55 
	hex ( 58 86 87 60 98 110 111 100 )  ( 86 15 19 ) simpleGrading ( 63.25435344454156 1 2.4066192336910857 ) // 56 
	hex ( 60 87 88 62 100 111 112 102 )  ( 86 15 19 ) simpleGrading ( 63.25435344454156 1 2.4066192336910857 ) // 57 
	hex ( 62 88 89 64 102 112 113 104 )  ( 86 15 19 ) simpleGrading ( 63.25435344454156 1 2.4066192336910857 ) // 58 
	hex ( 64 89 82 51 104 113 106 91 )  ( 86 15 19 ) simpleGrading ( 63.25435344454156 1 2.4066192336910857 ) // 59 
);

edges
(
	spline 1 2 ((0.0000000000000000000000000 0.0237607499999999971507236 0.0033680699999999999180722) (0.0000000000000000000000000 0.0228776099999999996126299 0.0066738899999999991632937) (0.0000000000000000000000000 0.0217498799999999992138555 0.0098007599999999986395416) (0.0000000000000000000000000 0.0205954799999999993431743 0.0126353099999999985564303) (0.0000000000000000000000000 0.0195689999999999995894395 0.0150622799999999990722133) (0.0000000000000000000000000 0.0187773900000000014409718 0.0169957799999999985274268))
	spline 2 3 ((0.0000000000000000000000000 0.0169957799999999985274268 0.0187773900000000014409718) (0.0000000000000000000000000 0.0150622799999999990722133 0.0195689999999999995894395) (0.0000000000000000000000000 0.0126353099999999985564303 0.0205954799999999993431743) (0.0000000000000000000000000 0.0098007599999999986395416 0.0217498799999999992138555) (0.0000000000000000000000000 0.0066738899999999991632937 0.0228776099999999996126299) (0.0000000000000000000000000 0.0033680699999999999180722 0.0237607499999999971507236))
	spline 5 6 ((5.0000000000000000000000000 0.0237607499999999971507236 0.0033680699999999999180722) (5.0000000000000000000000000 0.0228776099999999996126299 0.0066738899999999991632937) (5.0000000000000000000000000 0.0217498799999999992138555 0.0098007599999999986395416) (5.0000000000000000000000000 0.0205954799999999993431743 0.0126353099999999985564303) (5.0000000000000000000000000 0.0195689999999999995894395 0.0150622799999999990722133) (5.0000000000000000000000000 0.0187773900000000014409718 0.0169957799999999985274268))
	spline 6 7 ((5.0000000000000000000000000 0.0169957799999999985274268 0.0187773900000000014409718) (5.0000000000000000000000000 0.0150622799999999990722133 0.0195689999999999995894395) (5.0000000000000000000000000 0.0126353099999999985564303 0.0205954799999999993431743) (5.0000000000000000000000000 0.0098007599999999986395416 0.0217498799999999992138555) (5.0000000000000000000000000 0.0066738899999999991632937 0.0228776099999999996126299) (5.0000000000000000000000000 0.0033680699999999999180722 0.0237607499999999971507236))
	spline 8 9 ((0.0000000000000000000000000 -0.0237607499999999971507236 0.0033680699999999999180722) (0.0000000000000000000000000 -0.0228776099999999996126299 0.0066738899999999991632937) (0.0000000000000000000000000 -0.0217498799999999992138555 0.0098007599999999986395416) (0.0000000000000000000000000 -0.0205954799999999993431743 0.0126353099999999985564303) (0.0000000000000000000000000 -0.0195689999999999995894395 0.0150622799999999990722133) (0.0000000000000000000000000 -0.0187773900000000014409718 0.0169957799999999985274268))
	spline 3 9 ((0.0000000000000000000000000 -0.0033680699999999999180722 0.0237607499999999971507236) (0.0000000000000000000000000 -0.0066738899999999991632937 0.0228776099999999996126299) (0.0000000000000000000000000 -0.0098007599999999986395416 0.0217498799999999992138555) (0.0000000000000000000000000 -0.0126353099999999985564303 0.0205954799999999993431743) (0.0000000000000000000000000 -0.0150622799999999990722133 0.0195689999999999995894395) (0.0000000000000000000000000 -0.0169957799999999985274268 0.0187773900000000014409718))
	spline 10 11 ((5.0000000000000000000000000 -0.0237607499999999971507236 0.0033680699999999999180722) (5.0000000000000000000000000 -0.0228776099999999996126299 0.0066738899999999991632937) (5.0000000000000000000000000 -0.0217498799999999992138555 0.0098007599999999986395416) (5.0000000000000000000000000 -0.0205954799999999993431743 0.0126353099999999985564303) (5.0000000000000000000000000 -0.0195689999999999995894395 0.0150622799999999990722133) (5.0000000000000000000000000 -0.0187773900000000014409718 0.0169957799999999985274268))
	spline 7 11 ((5.0000000000000000000000000 -0.0033680699999999999180722 0.0237607499999999971507236) (5.0000000000000000000000000 -0.0066738899999999991632937 0.0228776099999999996126299) (5.0000000000000000000000000 -0.0098007599999999986395416 0.0217498799999999992138555) (5.0000000000000000000000000 -0.0126353099999999985564303 0.0205954799999999993431743) (5.0000000000000000000000000 -0.0150622799999999990722133 0.0195689999999999995894395) (5.0000000000000000000000000 -0.0169957799999999985274268 0.0187773900000000014409718))
	spline 12 13 ((0.0000000000000000000000000 -0.0169957799999999985274268 -0.0187773899999999945020779) (0.0000000000000000000000000 -0.0150622799999999990722133 -0.0195689999999999926505456) (0.0000000000000000000000000 -0.0126353099999999985564303 -0.0205954799999999924042804) (0.0000000000000000000000000 -0.0098007600000000003742651 -0.0217498799999999922749616) (0.0000000000000000000000000 -0.0066738900000000008980172 -0.0228776099999999926737360) (0.0000000000000000000000000 -0.0033680700000000025201574 -0.0237607499999999902118297))
	spline 12 8 ((0.0000000000000000000000000 -0.0187773900000000014409718 -0.0169957799999999915885329) (0.0000000000000000000000000 -0.0195689999999999995894395 -0.0150622799999999921333194) (0.0000000000000000000000000 -0.0205954799999999993431743 -0.0126353099999999933522599) (0.0000000000000000000000000 -0.0217498799999999957444086 -0.0098007599999999934353712) (0.0000000000000000000000000 -0.0228776099999999961431829 -0.0066738899999999939591233) (0.0000000000000000000000000 -0.0237607499999999902118297 -0.0033680699999999955812635))
	spline 14 15 ((5.0000000000000000000000000 -0.0169957799999999985274268 -0.0187773899999999945020779) (5.0000000000000000000000000 -0.0150622799999999990722133 -0.0195689999999999926505456) (5.0000000000000000000000000 -0.0126353099999999985564303 -0.0205954799999999924042804) (5.0000000000000000000000000 -0.0098007600000000003742651 -0.0217498799999999922749616) (5.0000000000000000000000000 -0.0066738900000000008980172 -0.0228776099999999926737360) (5.0000000000000000000000000 -0.0033680700000000025201574 -0.0237607499999999902118297))
	spline 14 10 ((5.0000000000000000000000000 -0.0187773900000000014409718 -0.0169957799999999915885329) (5.0000000000000000000000000 -0.0195689999999999995894395 -0.0150622799999999921333194) (5.0000000000000000000000000 -0.0205954799999999993431743 -0.0126353099999999933522599) (5.0000000000000000000000000 -0.0217498799999999957444086 -0.0098007599999999934353712) (5.0000000000000000000000000 -0.0228776099999999961431829 -0.0066738899999999939591233) (5.0000000000000000000000000 -0.0237607499999999902118297 -0.0033680699999999955812635))
	spline 13 16 ((0.0000000000000000000000000 0.0033680699999999925454974 -0.0237607500000000040896175) (0.0000000000000000000000000 0.0066738899999999930917616 -0.0228776100000000065515238) (0.0000000000000000000000000 0.0098007599999999934353712 -0.0217498800000000061527494) (0.0000000000000000000000000 0.0126353099999999950869833 -0.0205954800000000062820682) (0.0000000000000000000000000 0.0150622799999999956027663 -0.0195690000000000065283334) (0.0000000000000000000000000 0.0169957799999999950579799 -0.0187773900000000118493126))
	spline 16 1 ((0.0000000000000000000000000 0.0187773900000000014409718 -0.0169957800000000089357677) (0.0000000000000000000000000 0.0195689999999999995894395 -0.0150622800000000094805541) (0.0000000000000000000000000 0.0205954799999999993431743 -0.0126353100000000089647711) (0.0000000000000000000000000 0.0217498799999999992138555 -0.0098007600000000073131590) (0.0000000000000000000000000 0.0228776100000000030820768 -0.0066738900000000078369111) (0.0000000000000000000000000 0.0237607500000000006201706 -0.0033680700000000081580087))
	spline 15 17 ((5.0000000000000000000000000 0.0033680699999999925454974 -0.0237607500000000040896175) (5.0000000000000000000000000 0.0066738899999999930917616 -0.0228776100000000065515238) (5.0000000000000000000000000 0.0098007599999999934353712 -0.0217498800000000061527494) (5.0000000000000000000000000 0.0126353099999999950869833 -0.0205954800000000062820682) (5.0000000000000000000000000 0.0150622799999999956027663 -0.0195690000000000065283334) (5.0000000000000000000000000 0.0169957799999999950579799 -0.0187773900000000118493126))
	spline 17 5 ((5.0000000000000000000000000 0.0187773900000000014409718 -0.0169957800000000089357677) (5.0000000000000000000000000 0.0195689999999999995894395 -0.0150622800000000094805541) (5.0000000000000000000000000 0.0205954799999999993431743 -0.0126353100000000089647711) (5.0000000000000000000000000 0.0217498799999999992138555 -0.0098007600000000073131590) (5.0000000000000000000000000 0.0228776100000000030820768 -0.0066738900000000078369111) (5.0000000000000000000000000 0.0237607500000000006201706 -0.0033680700000000081580087))
	// arc 18 19 origin 1 (0.0000000000000000000000000 0.0000000000000000000000000 0.0000000000000000000000000)
	arc 18 19 (0.0000000000000000000000000 0.0277163859753386046524959 0.0114805029709526915798756)
	// arc 20 21 origin 1 (5.0000000000000000000000000 0.0000000000000000000000000 0.0000000000000000000000000)
	arc 20 21 (5.0000000000000000000000000 0.0277163859753386046524959 0.0114805029709526915798756)
	// arc 19 22 origin 1 (0.0000000000000000000000000 0.0000000000000000000000000 0.0000000000000000000000000)
	arc 19 22 (0.0000000000000000000000000 0.0114805029709526950493226 0.0277163859753385977136020)
	// arc 21 23 origin 1 (5.0000000000000000000000000 0.0000000000000000000000000 0.0000000000000000000000000)
	arc 21 23 (5.0000000000000000000000000 0.0114805029709526950493226 0.0277163859753385977136020)
	// arc 22 24 origin 1 (0.0000000000000000000000000 0.0000000000000000000000000 0.0000000000000000000000000)
	arc 22 24 (0.0000000000000000000000000 -0.0114805029709526915798756 0.0277163859753386046524959)
	// arc 23 25 origin 1 (5.0000000000000000000000000 0.0000000000000000000000000 0.0000000000000000000000000)
	arc 23 25 (5.0000000000000000000000000 -0.0114805029709526915798756 0.0277163859753386046524959)
	// arc 24 26 origin 1 (0.0000000000000000000000000 0.0000000000000000000000000 0.0000000000000000000000000)
	arc 24 26 (0.0000000000000000000000000 -0.0277163859753386011830489 0.0114805029709526985187695)
	// arc 25 27 origin 1 (5.0000000000000000000000000 0.0000000000000000000000000 0.0000000000000000000000000)
	arc 25 27 (5.0000000000000000000000000 -0.0277163859753386011830489 0.0114805029709526985187695)
	// arc 26 28 origin 1 (0.0000000000000000000000000 0.0000000000000000000000000 0.0000000000000000000000000)
	arc 26 28 (0.0000000000000000000000000 -0.0277163859753385977136020 -0.0114805029709526898451522)
	// arc 27 29 origin 1 (5.0000000000000000000000000 0.0000000000000000000000000 0.0000000000000000000000000)
	arc 27 29 (5.0000000000000000000000000 -0.0277163859753385977136020 -0.0114805029709526898451522)
	// arc 28 30 origin 1 (0.0000000000000000000000000 0.0000000000000000000000000 0.0000000000000000000000000)
	arc 28 30 (0.0000000000000000000000000 -0.0114805029709526967840461 -0.0277163859753386046524959)
	// arc 29 31 origin 1 (5.0000000000000000000000000 0.0000000000000000000000000 0.0000000000000000000000000)
	arc 29 31 (5.0000000000000000000000000 -0.0114805029709526967840461 -0.0277163859753386046524959)
	// arc 30 32 origin 1 (0.0000000000000000000000000 0.0000000000000000000000000 0.0000000000000000000000000)
	arc 30 32 (0.0000000000000000000000000 0.0114805029709526881104287 -0.0277163859753386115913898)
	// arc 31 33 origin 1 (5.0000000000000000000000000 0.0000000000000000000000000 0.0000000000000000000000000)
	arc 31 33 (5.0000000000000000000000000 0.0114805029709526881104287 -0.0277163859753386115913898)
	// arc 32 18 origin 1 (0.0000000000000000000000000 0.0000000000000000000000000 0.0000000000000000000000000)
	arc 32 18 (0.0000000000000000000000000 0.0277163859753386011830489 -0.0114805029709526915798756)
	// arc 33 20 origin 1 (5.0000000000000000000000000 0.0000000000000000000000000 0.0000000000000000000000000)
	arc 33 20 (5.0000000000000000000000000 0.0277163859753386011830489 -0.0114805029709526915798756)
	// arc 34 35 origin 1 (0.0000000000000000000000000 0.0000000000000000000000000 0.0000000000000000000000000)
	arc 34 35 (0.0000000000000000000000000 0.1080939053038205560630658 0.0447739615867155035799918)
	// arc 36 37 origin 1 (5.0000000000000000000000000 0.0000000000000000000000000 0.0000000000000000000000000)
	arc 36 37 (5.0000000000000000000000000 0.1080939053038205560630658 0.0447739615867155035799918)
	// arc 35 38 origin 1 (0.0000000000000000000000000 0.0000000000000000000000000 0.0000000000000000000000000)
	arc 35 38 (0.0000000000000000000000000 0.0447739615867155174577796 0.1080939053038205560630658)