// -*- C++ -*-
// File generated by PyFoam - sorry for the ugliness

FoamFile
{
 version 2;
 format ascii;
 class dictionary;
 object controlDict;
}

application rhoSimpleCondensationFoam;

startFrom latestTime;

startTime 0;

stopAt endTime;

endTime 10;

deltaT 0.01;

writeControl adjustableRunTime;

writeInterval 0.1;

purgeWrite 0;

writeFormat ascii;

writePrecision 6;

writeCompression no;
timeFormat general;

timePrecision 6;

runTimeModifiable yes;
adjustTimeStep yes;
maxCo 0.5;

functions
{
  turbulenceFields1
  {
    type turbulenceFields;
    libs
      (
        fieldFunctionObjects
      ); 	// Mandatory entries (unmodifiable)// Mandatory entries (runtime modifiable)// Either field or fields entries
    fields
      (
        epsilon
        R
      ); 	// Optional (inherited) entries
    enabled yes;
    log yes;
    executeControl writeTime;
    executeInterval 1;
    writeControl writeTime;
    writeInterval 1;
  }
  yPlus1
  {
      // Mandatory entries (unmodifiable)
      type            yPlus;
      libs            (fieldFunctionObjects);
  
      enabled yes;
      log yes;
      executeControl writeTime;
      executeInterval 1;
      writeControl writeTime;
      writeInterval 1;
  }
} 	// ************************************************************************* //

