// -*- C++ -*-
// File generated by PyFoam - sorry for the ugliness

FoamFile
{
 version 2.0;
 format ascii;
 class dictionary;
 object fvSolution;
}

solvers
{
  "(rho|rhoFinal)"
  {
    solver diagonal;
  }

  p
  {
    solver GAMG;
    tolerance 5e-06;
    relTol 0.01;
    smoother GaussSeidel;
    nPreSweeps  0;
    nPostSweeps 2;
    cacheAgglomeration on;
    agglomerator  faceAreaPair;
    nCellsInCoarsestLevel 100;
    mergeLevels 1;
    minIter   3;
  }
  //p { 
  //  solver PCG;
  //   preconditioner DIC;
  //    tolerance 1e-6;
  //     relTol 0.01;
  //  }
  pFinal
  {
    $p ;
    tolerance 5e-06;
    relTol 0;
    maxIter 1000;
  }
  "(U|Yi|k|h|epsilon|R|omega|e)"
  {
    solver PBiCGStab;
    preconditioner DILU;
    tolerance 1e-08;
    relTol 0.0;
  }
  "(U|Yi|k|h|epsilon|R|omega|e)Final"
  {
    $U ;
    tolerance 1e-08;
    relTol 0;
  }
}

PIMPLE
{
  momentumPredictor yes;

  nOuterCorrectors 2;

  nCorrectors 4;
  
  nNonOrthogonalCorrectors 1;

  turbOnFinalIterOnly no;

  residualControl
    {
        "(p|U)"
        {
            tolerance 5e-6;
            relTol 0;
        }
    }
}

SIMPLE
{
  nNonOrthogonalCorrectors 2;
  pMinFactor 0.4;
  pMaxFactor 1.5;
  residualControl
  {
    p 0.001;
    U 0.0001;
    e 0.001;
    "(k|epsilon)" 0.001;
  }
}

relaxationFactors
{
  fields
  {
    p 0.3;
    rho 0.01;
  }
  equations
  {
    U 0.7;
    e 0.5;
    "(CH4|O2|H2O|CO2|h).*" 1;
    "(k|epsilon|omega|R)" 0.7;
  }
} 
